<?xml version="1.0" encoding="UTF-8"?>

<!-- generated on 2023-09-03 21:18:02.183154 by osmWebWizard.py v1_18_0+1373-99e33d5ed24
<configuration>
    <net-file value="/home/ka/simulation/sumo/tools/2023-09-03-21-17-59/osm.net.xml.gz"/>
    <output-trip-file value="/home/ka/simulation/sumo/tools/2023-09-03-21-17-59/osm.passenger.trips.xml"/>
    <route-file value="/home/ka/simulation/sumo/tools/2023-09-03-21-17-59/osm.passenger.rou.xml"/>
    <prefix value="veh"/>
    <trip-attributes value="departLane=&quot;best&quot;"/>
    <fringe-start-attributes value="departSpeed=&quot;max&quot;"/>
    <vehicle-class value="passenger"/>
    <lanes value="True"/>
    <fringe-factor value="5"/>
    <allow-fringe.min-length value="1000.0"/>
    <via-edge-types value="highway.motorway,highway.motorway_link,highway.trunk_link,highway.primary_link,highway.secondary_link,highway.tertiary_link"/>
    <min-distance value="300.0"/>
    <min-distance.fringe value="10.0"/>
    <remove-loops value="True"/>
    <validate value="True"/>
    <insertion-density value="12.0"/>
</configuration>
-->

<!-- generated on 2023-09-03 21:18:02 by Eclipse SUMO duarouter Version 1.18.0
<configuration xmlns:xsi="http://www.w3.org/2001/XMLSchema-instance" xsi:noNamespaceSchemaLocation="http://sumo.dlr.de/xsd/duarouterConfiguration.xsd">

    <input>
        <net-file value="/home/ka/simulation/sumo/tools/2023-09-03-21-17-59/osm.net.xml.gz"/>
        <route-files value="/home/ka/simulation/sumo/tools/2023-09-03-21-17-59/osm.passenger.trips.xml"/>
    </input>

    <output>
        <output-file value="/home/ka/simulation/sumo/tools/2023-09-03-21-17-59/osm.passenger.trips.xml.tmp"/>
        <alternatives-output value="NUL"/>
        <write-trips value="true"/>
    </output>

    <processing>
        <remove-loops value="true"/>
    </processing>

    <time>
        <begin value="0.0"/>
        <end value="3600.0"/>
    </time>

    <report>
        <no-warnings value="true"/>
        <ignore-errors value="true"/>
        <no-step-log value="true"/>
    </report>

</configuration>
-->

<routes xmlns:xsi="http://www.w3.org/2001/XMLSchema-instance" xsi:noNamespaceSchemaLocation="http://sumo.dlr.de/xsd/routes_file.xsd">
  <vType id="veh_passenger" vClass="passenger"/>
  <interval begin="0" end="3600">
    <flow id="0" from="1" to="4" number="100" type="veh_passenger"/>
    <flow id="3" from="1" to="6" number="50" type="veh_passenger"/>
    <flow id="1" from="3" to="6" number="100" type="veh_passenger"/>
    <flow id="4" from="3" to="2" number="50" type="veh_passenger"/>
    <flow id="2" from="5" to="2" number="100" type="veh_passenger"/>
    <flow id="5" from="5" to="4" number="50" type="veh_passenger"/>
  </interval>
</routes>
