<?xml version="1.0" encoding="UTF-8"?>

<!-- generated on 2023-09-03 22:21:32 by Eclipse SUMO netconvert Version 1.18.0
<configuration xmlns:xsi="http://www.w3.org/2001/XMLSchema-instance" xsi:noNamespaceSchemaLocation="http://sumo.dlr.de/xsd/netconvertConfiguration.xsd">

    <input>
        <node-files value="cardiff.nod.xml"/>
        <edge-files value="cardiff.edg.xml"/>
    </input>

    <output>
        <output-file value="new.net.xml"/>
        <output.street-names value="true"/>
    </output>

    <report>
        <ignore-errors.edge-type value="true"/>
    </report>

</configuration>
-->

<net version="1.16" junctionCornerDetail="5" limitTurnSpeed="5.50" xmlns:xsi="http://www.w3.org/2001/XMLSchema-instance" xsi:noNamespaceSchemaLocation="http://sumo.dlr.de/xsd/net_file.xsd">

    <location netOffset="-488101.16,-5703339.12" convBoundary="0.00,0.00,403.24,410.73" origBoundary="-3.171682,51.480037,-3.161588,51.489004" projParameter="+proj=utm +zone=30 +ellps=WGS84 +datum=WGS84 +units=m +no_defs"/>

    <edge id=":10309305376_0" function="internal">
        <lane id=":10309305376_0_0" index="0" disallow="tram rail_urban rail rail_electric rail_fast ship" speed="13.41" length="0.30" shape="255.17,230.86 255.30,230.59"/>
        <lane id=":10309305376_0_1" index="1" disallow="tram rail_urban rail rail_electric rail_fast ship" speed="13.41" length="0.30" shape="258.06,232.23 258.19,231.96"/>
    </edge>
    <edge id=":1033695383_0" function="internal">
        <lane id=":1033695383_0_0" index="0" disallow="tram rail_urban rail rail_electric rail_fast ship" speed="13.41" length="3.20" shape="97.82,223.55 97.49,226.74"/>
        <lane id=":1033695383_0_1" index="1" disallow="tram rail_urban rail rail_electric rail_fast ship" speed="13.41" length="3.20" shape="98.52,220.43 97.94,223.57"/>
    </edge>
    <edge id=":1039922666_0" function="internal">
        <lane id=":1039922666_0_0" index="0" disallow="tram rail_urban rail rail_electric rail_fast ship" speed="13.41" length="5.13" shape="237.40,273.30 239.45,268.66"/>
        <lane id=":1039922666_0_1" index="1" disallow="tram rail_urban rail rail_electric rail_fast ship" speed="13.41" length="5.13" shape="240.30,274.65 242.40,269.90"/>
    </edge>
    <edge id=":1039923168_0" function="internal">
        <lane id=":1039923168_0_0" index="0" disallow="tram rail_urban rail rail_electric rail_fast ship" speed="13.41" length="5.05" shape="231.93,271.22 229.89,275.81"/>
        <lane id=":1039923168_0_1" index="1" disallow="tram rail_urban rail rail_electric rail_fast ship" speed="13.41" length="5.05" shape="229.02,269.90 226.96,274.53"/>
    </edge>
    <edge id=":1233811721_0" function="internal">
        <lane id=":1233811721_0_0" index="0" disallow="tram rail_urban rail rail_electric rail_fast ship" speed="13.41" length="8.30" shape="174.60,259.31 177.08,261.56 178.05,263.88 178.98,266.25 181.35,268.67"/>
        <lane id=":1233811721_0_1" index="1" disallow="tram rail_urban rail rail_electric rail_fast ship" speed="13.41" length="8.30" shape="178.83,265.55 178.83,270.83"/>
        <lane id=":1233811721_0_2" index="2" disallow="tram rail_urban rail rail_electric rail_fast ship" speed="13.41" length="8.30" shape="178.83,265.55 176.31,272.98"/>
    </edge>
    <edge id=":1233811756_0" function="internal">
        <lane id=":1233811756_0_0" index="0" disallow="tram rail_urban rail rail_electric rail_fast ship" speed="13.41" length="3.20" shape="113.97,230.64 115.08,227.63"/>
        <lane id=":1233811756_0_1" index="1" disallow="tram rail_urban rail rail_electric rail_fast ship" speed="13.41" length="3.20" shape="114.98,227.60 115.88,224.53"/>
    </edge>
    <edge id=":259513926_0" function="internal">
        <lane id=":259513926_0_0" index="0" disallow="tram rail_urban rail rail_electric rail_fast ship" speed="13.41" length="0.10" shape="291.53,152.74 291.49,152.82"/>
        <lane id=":259513926_0_1" index="1" disallow="tram rail_urban rail rail_electric rail_fast ship" speed="13.41" length="0.10" shape="294.43,154.08 294.47,154.00"/>
    </edge>
    <edge id=":263224959_0" function="internal">
        <lane id=":263224959_0_0" index="0" disallow="tram rail_urban rail rail_electric rail_fast ship" speed="13.41" length="6.37" shape="136.75,235.41 135.16,234.56 134.02,234.08 132.84,233.69 131.13,233.11"/>
        <lane id=":263224959_0_1" index="1" disallow="tram rail_urban rail rail_electric rail_fast ship" speed="13.41" length="6.37" shape="138.33,232.63 136.59,231.70 135.35,231.16 134.07,230.73 132.20,230.09"/>
    </edge>
    <edge id=":263224959_2" function="internal">
        <lane id=":263224959_2_0" index="0" allow="bicycle" speed="7.60" length="5.76" width="2.00" shape="138.62,232.10 137.19,231.16 136.10,230.14 135.34,229.06 134.93,227.90"/>
    </edge>
    <edge id=":289668211_0" function="internal">
        <lane id=":289668211_0_0" index="0" disallow="tram rail_urban rail rail_electric rail_fast ship" speed="13.65" length="4.01" shape="331.99,362.66 337.04,365.61"/>
        <lane id=":289668211_0_1" index="1" disallow="tram rail_urban rail rail_electric rail_fast ship" speed="13.65" length="4.01" shape="333.43,359.80 335.21,361.03"/>
    </edge>
    <edge id=":3992117804_0" function="internal">
        <lane id=":3992117804_0_0" index="0" disallow="tram rail_urban rail rail_electric rail_fast ship" speed="13.41" length="0.27" shape="317.79,363.89 317.90,363.96"/>
        <lane id=":3992117804_0_1" index="1" disallow="tram rail_urban rail rail_electric rail_fast ship" speed="13.41" length="0.27" shape="315.95,366.52 316.29,366.73"/>
    </edge>
    <edge id=":8568405057_0" function="internal">
        <lane id=":8568405057_0_0" index="0" disallow="tram rail_urban rail rail_electric rail_fast ship" speed="13.41" length="0.30" shape="255.82,218.18 255.70,218.44"/>
        <lane id=":8568405057_0_1" index="1" disallow="tram rail_urban rail rail_electric rail_fast ship" speed="13.41" length="0.30" shape="252.91,216.85 252.78,217.13"/>
    </edge>
    <edge id=":8568501758_0" function="internal">
        <lane id=":8568501758_0_0" index="0" disallow="tram rail_urban rail rail_electric rail_fast ship" speed="13.41" length="3.04" shape="300.45,355.49 301.65,353.23"/>
        <lane id=":8568501758_0_1" index="1" disallow="tram rail_urban rail rail_electric rail_fast ship" speed="13.41" length="3.04" shape="300.80,352.50 299.88,355.90"/>
    </edge>
    <edge id=":8568501760_0" function="internal">
        <lane id=":8568501760_0_0" index="0" disallow="tram rail_urban rail rail_electric rail_fast ship" speed="13.41" length="4.30" shape="243.52,314.16 244.32,318.24"/>
        <lane id=":8568501760_0_1" index="1" disallow="tram rail_urban rail rail_electric rail_fast ship" speed="13.41" length="4.30" shape="241.76,316.83 246.04,315.64"/>
    </edge>
    <edge id=":8766198949_0" function="internal">
        <lane id=":8766198949_0_0" index="0" disallow="tram rail_urban rail rail_electric rail_fast ship" speed="13.41" length="3.21" shape="124.57,230.78 123.30,233.72"/>
        <lane id=":8766198949_0_1" index="1" disallow="tram rail_urban rail rail_electric rail_fast ship" speed="13.41" length="3.21" shape="125.64,227.76 124.31,230.69"/>
    </edge>
    <edge id=":8766198964_0" function="internal">
        <lane id=":8766198964_0_0" index="0" disallow="tram rail_urban rail rail_electric rail_fast ship" speed="13.41" length="3.21" shape="64.61,224.27 64.45,221.07"/>
        <lane id=":8766198964_0_1" index="1" disallow="tram rail_urban rail rail_electric rail_fast ship" speed="13.41" length="3.21" shape="64.68,221.07 64.39,217.87"/>
    </edge>
    <edge id=":8978103279_0" function="internal">
        <lane id=":8978103279_0_0" index="0" disallow="tram rail_urban rail rail_electric rail_fast ship" speed="13.41" length="3.21" shape="347.75,374.78 349.10,371.86"/>
        <lane id=":8978103279_0_1" index="1" disallow="tram rail_urban rail rail_electric rail_fast ship" speed="13.41" length="3.21" shape="349.36,372.01 350.67,369.07"/>
    </edge>
    <edge id=":8978103313_0" function="internal">
        <lane id=":8978103313_0_0" index="0" disallow="tram rail_urban rail rail_electric rail_fast ship" speed="13.41" length="0.30" shape="239.82,311.74 240.07,311.90"/>
        <lane id=":8978103313_0_1" index="1" disallow="tram rail_urban rail rail_electric rail_fast ship" speed="13.41" length="0.30" shape="238.07,314.42 238.32,314.58"/>
    </edge>
    <edge id=":8978191961_0" function="internal">
        <lane id=":8978191961_0_0" index="0" disallow="tram rail_urban rail rail_electric rail_fast ship" speed="13.41" length="3.07" shape="273.73,320.81 271.69,323.13"/>
        <lane id=":8978191961_0_1" index="1" disallow="tram rail_urban rail rail_electric rail_fast ship" speed="13.41" length="3.07" shape="271.93,323.12 273.60,320.56"/>
    </edge>
    <edge id=":8978191962_0" function="internal">
        <lane id=":8978191962_0_0" index="0" disallow="tram rail_urban rail rail_electric rail_fast ship" speed="13.41" length="3.21" shape="205.60,278.21 203.61,280.73"/>
        <lane id=":8978191962_0_1" index="1" disallow="tram rail_urban rail rail_electric rail_fast ship" speed="13.41" length="3.21" shape="207.35,275.53 205.35,278.05"/>
    </edge>
    <edge id=":8978191964_0" function="internal">
        <lane id=":8978191964_0_0" index="0" disallow="tram rail_urban rail rail_electric rail_fast ship" speed="13.41" length="3.21" shape="170.08,258.94 171.57,256.09"/>
        <lane id=":8978191964_0_1" index="1" disallow="tram rail_urban rail rail_electric rail_fast ship" speed="13.41" length="3.21" shape="171.82,256.25 173.31,253.41"/>
    </edge>
    <edge id=":8978201630_0" function="internal">
        <lane id=":8978201630_0_0" index="0" disallow="tram rail_urban rail rail_electric rail_fast ship" speed="13.41" length="0.30" shape="208.56,287.50 208.79,287.67"/>
        <lane id=":8978201630_0_1" index="1" disallow="tram rail_urban rail rail_electric rail_fast ship" speed="13.41" length="0.30" shape="206.65,290.07 206.89,290.25"/>
        <lane id=":8978201630_0_2" index="2" disallow="tram rail_urban rail rail_electric rail_fast ship" speed="13.41" length="0.30" shape="204.74,292.64 204.99,292.83"/>
    </edge>
    <edge id=":8978201635_0" function="internal">
        <lane id=":8978201635_0_0" index="0" disallow="tram rail_urban rail rail_electric rail_fast ship" speed="13.41" length="0.30" shape="207.56,279.49 207.31,279.33"/>
        <lane id=":8978201635_0_1" index="1" disallow="tram rail_urban rail rail_electric rail_fast ship" speed="13.41" length="0.30" shape="209.31,276.81 209.06,276.65"/>
    </edge>
    <edge id=":cluster_263223913_8929497787_8978103297_0" function="internal">
        <lane id=":cluster_263223913_8929497787_8978103297_0_0" index="0" disallow="tram rail_urban rail rail_electric rail_fast ship" speed="13.41" length="0.29" shape="329.99,370.97 330.22,371.11"/>
        <lane id=":cluster_263223913_8929497787_8978103297_0_1" index="1" disallow="tram rail_urban rail rail_electric rail_fast ship" speed="13.41" length="0.29" shape="328.38,373.74 328.65,373.90"/>
    </edge>
    <edge id=":cluster_263225125_346197816_0" function="internal">
        <lane id=":cluster_263225125_346197816_0_0" index="0" disallow="tram rail_urban rail rail_electric rail_fast ship" speed="13.41" length="0.44" shape="311.19,74.42 311.08,74.77"/>
        <lane id=":cluster_263225125_346197816_0_1" index="1" disallow="tram rail_urban rail rail_electric rail_fast ship" speed="13.41" length="0.44" shape="308.18,73.34 308.02,73.83"/>
    </edge>
    <edge id=":cluster_263225125_346197816_2" function="internal">
        <lane id=":cluster_263225125_346197816_2_0" index="0" disallow="tram rail_urban rail rail_electric rail_fast ship" speed="13.41" length="0.10" shape="317.45,76.77 317.47,76.72"/>
        <lane id=":cluster_263225125_346197816_2_1" index="1" disallow="tram rail_urban rail rail_electric rail_fast ship" speed="13.41" length="0.10" shape="320.49,77.75 320.47,77.80"/>
    </edge>
    <edge id=":cluster_289662957_289666026_289667364_289667600_#6more_0" function="internal">
        <lane id=":cluster_289662957_289666026_289667364_289667600_#6more_0_0" index="0" disallow="tram rail_urban rail rail_electric rail_fast ship" speed="13.41" length="8.88" shape="230.22,292.24 227.98,290.94 226.21,290.48 224.40,290.06 222.07,288.90"/>
        <lane id=":cluster_289662957_289666026_289667364_289667600_#6more_0_1" index="1" disallow="tram rail_urban rail rail_electric rail_fast ship" speed="13.41" length="8.88" shape="231.98,289.55 229.73,288.26 227.95,287.80 226.15,287.38 223.81,286.22"/>
    </edge>
    <edge id=":cluster_289662957_289666026_289667364_289667600_#6more_2" function="internal">
        <lane id=":cluster_289662957_289666026_289667364_289667600_#6more_2_0" index="0" disallow="tram rail_urban rail rail_electric rail_fast ship" speed="4.68" length="3.73" shape="231.98,289.55 231.40,289.94 230.96,291.31 230.75,292.62 230.90,292.85"/>
    </edge>
    <edge id=":cluster_289662957_289666026_289667364_289667600_#6more_3" function="internal">
        <lane id=":cluster_289662957_289666026_289667364_289667600_#6more_3_0" index="0" disallow="tram rail_urban rail rail_electric rail_fast ship" speed="7.36" length="12.75" shape="231.98,289.55 235.04,296.80 234.47,301.65"/>
    </edge>
    <edge id=":cluster_289662957_289666026_289667364_289667600_#6more_12" function="internal">
        <lane id=":cluster_289662957_289666026_289667364_289667600_#6more_12_0" index="0" disallow="tram rail_urban rail rail_electric rail_fast ship" speed="7.36" length="12.75" shape="234.47,301.65 230.24,304.09 222.37,304.14"/>
    </edge>
    <edge id=":cluster_289662957_289666026_289667364_289667600_#6more_4" function="internal">
        <lane id=":cluster_289662957_289666026_289667364_289667600_#6more_4_0" index="0" disallow="tram rail_urban rail rail_electric rail_fast ship" speed="8.26" length="13.44" shape="224.01,289.06 222.39,293.39 221.87,296.90 222.45,299.59 224.13,301.46"/>
        <lane id=":cluster_289662957_289666026_289667364_289667600_#6more_4_1" index="1" disallow="tram rail_urban rail rail_electric rail_fast ship" speed="9.53" length="18.22" shape="221.20,287.51 219.18,293.12 218.70,297.76 219.76,301.44 222.37,304.14"/>
    </edge>
    <edge id=":cluster_289662957_289666026_289667364_289667600_#6more_6" function="internal">
        <lane id=":cluster_289662957_289666026_289667364_289667600_#6more_6_0" index="0" disallow="tram rail_urban rail rail_electric rail_fast ship" speed="4.16" length="3.40" shape="221.20,287.51 221.76,286.56 222.38,286.04 223.07,285.92 223.81,286.22"/>
    </edge>
    <edge id=":cluster_289662957_289666026_289667364_289667600_#6more_7" function="internal">
        <lane id=":cluster_289662957_289666026_289667364_289667600_#6more_7_0" index="0" disallow="tram rail_urban rail rail_electric rail_fast ship" speed="6.01" length="8.09" shape="221.20,287.51 225.63,285.21 228.73,285.33"/>
    </edge>
    <edge id=":cluster_289662957_289666026_289667364_289667600_#6more_13" function="internal">
        <lane id=":cluster_289662957_289666026_289667364_289667600_#6more_13_0" index="0" disallow="tram rail_urban rail rail_electric rail_fast ship" speed="6.01" length="8.09" shape="228.73,285.33 230.48,287.88 230.90,292.85"/>
    </edge>
    <edge id=":cluster_289662957_289666026_289667364_289667600_#6more_8" function="internal">
        <lane id=":cluster_289662957_289666026_289667364_289667600_#6more_8_0" index="0" disallow="tram rail_urban rail rail_electric rail_fast ship" speed="7.13" length="12.14" shape="218.32,294.69 221.04,296.03 223.58,295.92 225.93,294.34 228.10,291.31"/>
    </edge>
    <edge id=":cluster_289662957_289666026_289667364_289667600_#6more_9" function="internal">
        <lane id=":cluster_289662957_289666026_289667364_289667600_#6more_9_0" index="0" disallow="tram rail_urban rail rail_electric rail_fast ship" speed="13.41" length="9.01" shape="218.32,294.69 220.21,296.52 221.17,298.15 222.15,299.74 224.13,301.46"/>
        <lane id=":cluster_289662957_289666026_289667364_289667600_#6more_9_1" index="1" disallow="tram rail_urban rail rail_electric rail_fast ship" speed="13.41" length="9.01" shape="216.57,297.38 218.47,299.21 219.42,300.83 220.40,302.42 222.37,304.14"/>
    </edge>
    <edge id=":cluster_289662957_289666026_289667364_289667600_#6more_11" function="internal">
        <lane id=":cluster_289662957_289666026_289667364_289667600_#6more_11_0" index="0" disallow="tram rail_urban rail rail_electric rail_fast ship" speed="7.17" length="12.05" shape="214.83,300.07 211.88,293.24 212.39,288.65"/>
    </edge>
    <edge id=":cluster_289662957_289666026_289667364_289667600_#6more_14" function="internal">
        <lane id=":cluster_289662957_289666026_289667364_289667600_#6more_14_0" index="0" disallow="tram rail_urban rail rail_electric rail_fast ship" speed="7.17" length="12.05" shape="212.39,288.65 216.37,286.31 223.81,286.22"/>
    </edge>
    <edge id=":cluster_8568524462_8568524464_8978103310_0" function="internal">
        <lane id=":cluster_8568524462_8568524464_8978103310_0_0" index="0" disallow="tram rail_urban rail rail_electric rail_fast ship" speed="13.65" length="8.66" shape="294.79,336.42 292.98,334.97 291.89,333.79 290.81,332.60 289.01,331.13"/>
        <lane id=":cluster_8568524462_8568524464_8978103310_0_1" index="1" disallow="tram rail_urban rail rail_electric rail_fast ship" speed="13.65" length="8.66" shape="296.17,334.17 293.71,333.36 291.64,333.92 289.57,334.48 287.11,333.68"/>
    </edge>

    <edge id="1" from="289662869" to="1233811721" name="Newport Road" priority="12" type="highway.primary" shape="6.07,241.78 15.44,235.82 26.45,232.00 39.29,229.74 54.31,228.23 68.36,227.57 81.31,228.25 97.69,230.41 112.74,234.16 127.95,239.31 145.31,247.48 172.15,263.44">
        <lane id="1_0" index="0" disallow="tram rail_urban rail rail_electric rail_fast ship" speed="13.41" length="183.38" shape="3.49,237.73 13.34,231.47 25.24,227.34 38.63,224.98 53.96,223.44 68.37,222.76 81.75,223.47 98.59,225.69 114.09,229.55 129.75,234.85 147.56,243.24 174.60,259.31">
            <param key="origId" value="26434507"/>
        </lane>
        <lane id="1_1" index="1" disallow="tram rail_urban rail rail_electric rail_fast ship" speed="13.41" length="183.38" shape="5.21,240.43 14.74,234.37 26.05,230.45 39.07,228.15 54.19,226.63 68.36,225.97 81.46,226.66 97.99,228.84 113.19,232.62 128.55,237.82 146.06,246.07 178.83,265.55">
            <param key="origId" value="26434507"/>
        </lane>
        <param key="ref" value="A4161"/>
    </edge>
    <edge id="2" from="8766198964" to="8588421440" name="Newport Road" priority="12" type="highway.primary" spreadType="center" shape="64.60,219.47 56.73,219.60 41.97,220.21 35.69,220.82 29.28,221.80 21.39,223.25 12.28,225.54 0.00,229.32">
        <lane id="2_0" index="0" disallow="tram rail_urban rail rail_electric rail_fast ship" speed="13.41" length="65.52" shape="64.45,221.07 56.78,221.20 42.08,221.81 35.89,222.41 29.55,223.38 21.73,224.81 12.71,227.08 0.47,230.85">
            <param key="origId" value="227852832"/>
        </lane>
        <lane id="2_1" index="1" disallow="tram rail_urban rail rail_electric rail_fast ship" speed="13.41" length="65.52" shape="64.39,217.87 56.68,218.00 41.86,218.61 35.49,219.23 29.01,220.22 21.05,221.69 11.85,224.00 -0.47,227.79">
            <param key="origId" value="227852832"/>
        </lane>
        <param key="ref" value="A4161"/>
    </edge>
    <edge id="24299008#0" from="263224959" to="8048166057" name="Fitzalan Road" priority="1" type="highway.cycleway" spreadType="center">
        <lane id="24299008#0_0" index="0" allow="bicycle" speed="5.56" length="0.20" width="2.00" shape="134.93,227.90 134.89,227.71">
            <param key="origId" value="24299008"/>
        </lane>
    </edge>
    <edge id="26434967#2" from="cluster_263225125_346197816" to="8568405057" name="Fitzalan Place" priority="12" type="highway.primary" spreadType="center" shape="309.55,74.30 305.93,85.99 303.93,92.87 297.59,114.31 287.36,144.13 284.31,151.92 279.00,163.92 254.30,217.65">
        <lane id="26434967#2_0" index="0" disallow="tram rail_urban rail rail_electric rail_fast ship" speed="13.41" length="153.76" shape="311.08,74.77 307.46,86.45 305.47,93.32 299.11,114.80 288.86,144.68 285.79,152.54 280.46,164.58 255.82,218.18">
            <param key="origId" value="26434967"/>
        </lane>
        <lane id="26434967#2_1" index="1" disallow="tram rail_urban rail rail_electric rail_fast ship" speed="13.41" length="153.76" shape="308.02,73.83 304.40,85.53 302.39,92.42 296.07,113.82 285.86,143.58 282.83,151.30 277.54,163.26 252.91,216.85">
            <param key="origId" value="26434967"/>
        </lane>
        <param key="origFrom" value="346197816"/>
        <param key="ref" value="A4160"/>
    </edge>
    <edge id="26434967#3" from="8568405057" to="1039923168" name="Fitzalan Place" priority="12" type="highway.primary" spreadType="center" shape="254.30,217.65 232.15,266.85 231.31,268.71 229.38,272.98">
        <lane id="26434967#3_0" index="0" disallow="tram rail_urban rail rail_electric rail_fast ship" speed="13.41" length="57.88" shape="255.70,218.44 233.61,267.51 232.77,269.37 231.93,271.22">
            <param key="origId" value="26434967"/>
        </lane>
        <lane id="26434967#3_1" index="1" disallow="tram rail_urban rail rail_electric rail_fast ship" speed="13.41" length="57.88" shape="252.78,217.13 230.69,266.19 229.85,268.05 229.02,269.90">
            <param key="origId" value="26434967"/>
        </lane>
        <param key="ref" value="A4160"/>
    </edge>
    <edge id="26434967#5" from="1039923168" to="cluster_289662957_289666026_289667364_289667600_#6more" name="Fitzalan Place" priority="12" type="highway.primary" spreadType="center" shape="229.38,272.98 224.44,284.29 222.94,287.56">
        <lane id="26434967#5_0" index="0" disallow="tram rail_urban rail rail_electric rail_fast ship" speed="13.41" length="14.34" shape="229.89,275.81 225.90,284.94 224.01,289.06">
            <param key="origId" value="26434967"/>
        </lane>
        <lane id="26434967#5_1" index="1" disallow="tram rail_urban rail rail_electric rail_fast ship" speed="13.41" length="14.34" shape="226.96,274.53 222.98,283.64 221.20,287.51">
            <param key="origId" value="26434967"/>
        </lane>
        <param key="origTo" value="289667364"/>
        <param key="ref" value="A4160"/>
    </edge>
    <edge id="26435006#0" from="8978191964" to="263224959" name="Newport Road" priority="12" type="highway.primary" spreadType="center" shape="172.57,254.83 161.03,247.34 135.99,233.14">
        <lane id="26435006#0_0" index="0" disallow="tram rail_urban rail rail_electric rail_fast ship" speed="13.41" length="40.61" shape="171.57,256.09 160.20,248.71 136.75,235.41">
            <param key="origId" value="26435006"/>
        </lane>
        <lane id="26435006#0_1" index="1" disallow="tram rail_urban rail rail_electric rail_fast ship" speed="13.41" length="40.61" shape="173.31,253.41 161.86,245.97 138.33,232.63">
            <param key="origId" value="26435006"/>
        </lane>
        <param key="ref" value="A4161"/>
    </edge>
    <edge id="26435006#1" from="263224959" to="8766198949" name="Newport Road" priority="12" type="highway.primary" spreadType="center">
        <lane id="26435006#1_0" index="0" disallow="tram rail_urban rail rail_electric rail_fast ship" speed="13.41" length="6.97" shape="131.13,233.11 124.57,230.78">
            <param key="origId" value="26435006"/>
        </lane>
        <lane id="26435006#1_1" index="1" disallow="tram rail_urban rail rail_electric rail_fast ship" speed="13.41" length="6.97" shape="132.20,230.09 125.64,227.76">
            <param key="origId" value="26435006"/>
        </lane>
        <param key="ref" value="A4161"/>
    </edge>
    <edge id="26435012#0" from="cluster_289662957_289666026_289667364_289667600_#6more" to="1039922666" name="Fitzalan Place" priority="12" type="highway.primary" spreadType="center" shape="229.50,292.08 231.27,288.87 238.77,274.14 240.04,271.40">
        <lane id="26435012#0_0" index="0" disallow="tram rail_urban rail rail_electric rail_fast ship" speed="13.41" length="20.38" shape="228.10,291.31 229.86,288.12 237.33,273.44 237.40,273.30">
            <param key="origId" value="26435012"/>
        </lane>
        <lane id="26435012#0_1" index="1" disallow="tram rail_urban rail rail_electric rail_fast ship" speed="13.41" length="20.38" shape="230.90,292.85 232.68,289.62 240.21,274.84 240.30,274.65">
            <param key="origId" value="26435012"/>
        </lane>
        <param key="origFrom" value="289662957"/>
        <param key="ref" value="A4160"/>
    </edge>
    <edge id="26435012#1" from="1039922666" to="10309305376" name="Fitzalan Place" priority="12" type="highway.primary" spreadType="center" shape="240.04,271.40 241.98,266.77 249.62,246.65 254.89,235.19 256.68,231.41">
        <lane id="26435012#1_0" index="0" disallow="tram rail_urban rail rail_electric rail_fast ship" speed="13.41" length="40.89" shape="239.45,268.66 240.49,266.18 248.14,246.03 253.44,234.52 255.17,230.86">
            <param key="origId" value="26435012"/>
        </lane>
        <lane id="26435012#1_1" index="1" disallow="tram rail_urban rail rail_electric rail_fast ship" speed="13.41" length="40.89" shape="242.40,269.90 243.47,267.36 251.10,247.27 256.34,235.86 258.06,232.23">
            <param key="origId" value="26435012"/>
        </lane>
        <param key="ref" value="A4160"/>
    </edge>
    <edge id="26435012#2" from="10309305376" to="259513926" name="Fitzalan Place" priority="12" type="highway.primary" spreadType="center" shape="256.68,231.41 266.09,211.60 292.98,153.41">
        <lane id="26435012#2_0" index="0" disallow="tram rail_urban rail rail_electric rail_fast ship" speed="13.41" length="85.88" shape="255.30,230.59 264.64,210.92 291.53,152.74">
            <param key="origId" value="26435012"/>
        </lane>
        <lane id="26435012#2_1" index="1" disallow="tram rail_urban rail rail_electric rail_fast ship" speed="13.41" length="85.88" shape="258.19,231.96 267.54,212.28 294.43,154.08">
            <param key="origId" value="26435012"/>
        </lane>
        <param key="ref" value="A4160"/>
    </edge>
    <edge id="26435012#3" from="259513926" to="cluster_263225125_346197816" name="Fitzalan Place" priority="12" type="highway.primary" spreadType="center" shape="292.98,153.41 296.08,145.60 300.40,133.61 304.79,121.05 309.55,106.91 314.55,91.06 318.97,77.26">
        <lane id="26435012#3_0" index="0" disallow="tram rail_urban rail rail_electric rail_fast ship" speed="13.41" length="80.48" shape="291.49,152.82 294.58,145.03 298.89,133.07 303.28,120.53 308.03,106.41 313.03,90.58 317.45,76.77">
            <param key="origId" value="26435012"/>
        </lane>
        <lane id="26435012#3_1" index="1" disallow="tram rail_urban rail rail_electric rail_fast ship" speed="13.41" length="80.48" shape="294.47,154.00 297.58,146.17 301.91,134.15 306.30,121.57 311.07,107.41 316.07,91.54 320.49,77.75">
            <param key="origId" value="26435012"/>
        </lane>
        <param key="origTo" value="263225125"/>
        <param key="ref" value="A4160"/>
    </edge>
    <edge id="3" from="289666303" to="cluster_263225125_346197816" name="Fitzalan Place" priority="12" type="highway.primary" spreadType="center" shape="340.20,0.00 332.97,15.78 331.27,19.76 329.89,22.99 314.51,59.11 313.13,63.31 309.55,74.30">
        <lane id="3_0" index="0" disallow="tram rail_urban rail rail_electric rail_fast ship" speed="13.41" length="79.99" shape="341.65,0.67 334.43,16.43 332.74,20.39 331.36,23.62 316.01,59.67 314.65,63.81 311.19,74.42">
            <param key="origId" value="26434967"/>
        </lane>
        <lane id="3_1" index="1" disallow="tram rail_urban rail rail_electric rail_fast ship" speed="13.41" length="79.99" shape="338.75,-0.67 331.51,15.13 329.80,19.13 328.42,22.36 313.01,58.55 311.61,62.81 308.18,73.34">
            <param key="origId" value="26434967"/>
        </lane>
        <param key="origTo" value="346197816"/>
        <param key="ref" value="A4160"/>
    </edge>
    <edge id="396403803#0" from="1233811721" to="8978201630" name="Newport Road" priority="12" type="highway.primary" spreadType="center" shape="172.15,263.44 178.25,270.43 202.23,286.79 203.78,287.94 206.77,290.16">
        <lane id="396403803#0_0" index="0" disallow="tram rail_urban rail rail_electric rail_fast ship" speed="13.41" length="33.83" shape="181.35,268.67 204.04,284.15 205.69,285.37 208.56,287.50">
            <param key="origId" value="396403803"/>
        </lane>
        <lane id="396403803#0_1" index="1" disallow="tram rail_urban rail rail_electric rail_fast ship" speed="13.41" length="33.83" shape="178.83,270.83 202.23,286.79 203.78,287.94 206.65,290.07">
            <param key="origId" value="396403803"/>
        </lane>
        <lane id="396403803#0_2" index="2" disallow="tram rail_urban rail rail_electric rail_fast ship" speed="13.41" length="33.83" shape="176.31,272.98 200.42,289.43 201.87,290.51 204.74,292.64">
            <param key="origId" value="396403803"/>
        </lane>
        <param key="ref" value="A4161"/>
    </edge>
    <edge id="396403803#3" from="8978201630" to="cluster_289662957_289666026_289667364_289667600_#6more" name="Newport Road" priority="12" type="highway.primary" spreadType="center" shape="206.77,290.16 218.27,298.63">
        <lane id="396403803#3_0" index="0" disallow="tram rail_urban rail rail_electric rail_fast ship" speed="13.41" length="12.02" shape="208.79,287.67 218.32,294.69">
            <param key="origId" value="396403803"/>
        </lane>
        <lane id="396403803#3_1" index="1" disallow="tram rail_urban rail rail_electric rail_fast ship" speed="13.41" length="12.02" shape="206.89,290.25 216.57,297.38">